Version 4
SHEET 1 1232 900
WIRE 944 -624 848 -624
WIRE 944 -608 944 -624
WIRE 944 -496 944 -528
WIRE 448 -160 400 -160
WIRE 672 -160 528 -160
WIRE 752 -144 720 -144
WIRE 992 -144 832 -144
WIRE 400 -48 400 -160
WIRE 464 -48 400 -48
WIRE 640 -48 528 -48
WIRE 720 -48 720 -144
WIRE 720 -48 640 -48
WIRE 992 -48 992 -144
WIRE 992 -48 768 -48
WIRE 480 16 432 16
WIRE 560 16 512 16
WIRE 768 16 768 -48
WIRE 768 16 688 16
WIRE 880 16 800 16
WIRE 240 32 224 32
WIRE 400 32 400 -48
WIRE 400 32 320 32
WIRE 480 32 480 16
WIRE 512 32 512 16
WIRE 560 32 560 16
WIRE 224 64 224 32
WIRE 800 64 800 16
WIRE 400 80 400 32
WIRE 448 80 400 80
WIRE 640 112 640 -48
WIRE 640 112 608 112
WIRE 688 112 688 16
WIRE 736 112 688 112
WIRE 64 128 -80 128
WIRE 128 128 64 128
WIRE 240 128 208 128
WIRE 256 128 240 128
WIRE 368 128 336 128
WIRE 400 128 368 128
WIRE 400 144 400 128
WIRE 448 144 400 144
WIRE -80 160 -80 128
WIRE 64 160 64 128
WIRE 672 176 672 -160
WIRE 704 176 672 176
WIRE 800 176 800 160
WIRE 800 176 704 176
WIRE 800 192 800 176
WIRE 480 208 480 192
WIRE 512 208 512 192
WIRE 512 208 480 208
WIRE 512 224 512 208
WIRE -80 256 -80 240
WIRE 64 256 64 240
WIRE 368 288 368 128
WIRE 432 288 368 288
WIRE 640 288 512 288
WIRE 800 288 800 272
WIRE 800 288 640 288
WIRE 800 304 800 288
WIRE 240 320 240 128
WIRE 128 368 48 368
WIRE 176 368 128 368
WIRE -96 400 -128 400
WIRE 48 400 48 368
WIRE 48 400 -16 400
WIRE 800 400 800 368
WIRE 128 432 128 368
WIRE 240 432 240 416
WIRE -128 464 -128 400
WIRE 128 512 128 496
WIRE -128 560 -128 544
FLAG -80 256 0
FLAG 224 64 0
FLAG -128 560 0
FLAG 240 432 0
FLAG 128 512 0
FLAG 944 -496 0
FLAG 848 -624 V+
FLAG 800 400 0
FLAG 512 224 0
FLAG 432 16 V+
FLAG 880 16 V+
FLAG 640 288 vlas
FLAG 704 176 ilas
FLAG 64 256 0
SYMBOL res 784 176 R0
SYMATTR InstName R1
SYMATTR Value .1
SYMBOL voltage -80 144 R0
WINDOW 123 24 44 Left 2
WINDOW 39 0 0 Left 0
WINDOW 3 24 72 Left 2
SYMATTR Value2 AC 3.8
SYMATTR Value 10
SYMATTR InstName V2
SYMBOL res 352 112 R90
WINDOW 0 0 56 VBottom 2
WINDOW 3 32 56 VTop 2
SYMATTR InstName R2
SYMATTR Value 180k
SYMBOL res 528 272 R90
WINDOW 0 0 56 VBottom 2
WINDOW 3 32 56 VTop 2
SYMATTR InstName R3
SYMATTR Value 20k
SYMBOL cap 528 -64 R90
WINDOW 0 0 32 VBottom 2
WINDOW 3 32 32 VTop 2
SYMATTR InstName C1
SYMATTR Value 120p
SYMBOL res 336 16 R90
WINDOW 0 0 56 VBottom 2
WINDOW 3 32 56 VTop 2
SYMATTR InstName R4
SYMATTR Value 200k
SYMBOL res 544 -176 R90
WINDOW 0 0 56 VBottom 2
WINDOW 3 32 56 VTop 2
SYMATTR InstName R5
SYMATTR Value 20k
SYMBOL npn 736 64 R0
SYMATTR InstName Q1
SYMATTR Value ST901T
SYMBOL res 848 -160 R90
WINDOW 0 0 56 VBottom 2
WINDOW 3 32 56 VTop 2
SYMATTR InstName R6
SYMATTR Value 100
SYMBOL voltage -128 448 R0
WINDOW 3 -353 85 Left 2
WINDOW 123 24 44 Left 2
WINDOW 39 0 0 Left 0
SYMATTR Value PULSE(0 5 1u 10n 10n 100m 200m)
SYMATTR Value2 AC 5
SYMATTR InstName V3
SYMBOL res 224 112 R90
WINDOW 0 0 56 VBottom 2
WINDOW 3 32 56 VTop 2
SYMATTR InstName R7
SYMATTR Value 20k
SYMBOL res 0 384 R90
WINDOW 0 0 56 VBottom 2
WINDOW 3 32 56 VTop 2
SYMATTR InstName R8
SYMATTR Value 700
SYMBOL cap 112 432 R0
SYMATTR InstName C2
SYMATTR Value 2n
SYMBOL npn 176 320 R0
SYMATTR InstName Q2
SYMATTR Value ZTX458
SYMBOL voltage 944 -624 R0
WINDOW 123 0 0 Left 0
WINDOW 39 0 0 Left 0
SYMATTR InstName V4
SYMATTR Value 30
SYMBOL diode 784 304 R0
SYMATTR InstName D1
SYMATTR Value laser
SYMBOL OpAmps\\LTC6090 512 112 R0
SYMATTR InstName U2
SYMBOL res 48 144 R0
SYMATTR InstName R9
SYMATTR Value 1k
TEXT -288 -312 Left 2 !.model laser D(Ron=0.1 Roff=1G Vfwd=16)
TEXT -632 -112 Left 2 !.MODEL ST901T NPN(Bf = 500 Vaf = 350 Vje = 1.8 Vjs = 2)
TEXT -584 752 Left 2 !.MODEL DI_MMBT3904 NPN (IS=48.3f NF=1.00 BF=410 VAF=114\n+ IKF=0.121 ISE=13.1p NE=2.00 BR=4.00 NR=1.00\n+ VAR=24.0 IKR=0.300 RE=2.63 RB=10.5 RC=1.05\n+ XTB=1.5 CJE=9.67p VJE=1.10 MJE=0.500 CJC=8.70p VJC=0.300\n+ MJC=0.300 TF=440p TR=74.7n EG=1.12
TEXT -608 368 Left 2 !.tran 0 300m 0 10u
TEXT -360 -536 Left 2 !.MODEL ZTX458 NPN( IS=5.32E-14 NF=1 BF=230 IKF=1.5 VAF=1500\n    + ISE=2.1E-14 NE=1.385 NR=1.05 BR=8 IKR=0.7 VAR=64 ISC=6.42E-12\n    + NC=1.25 RB=0.5 RE=0.224 RC=0.134 QUASIMOD=1 RCO=80 GAMMA=4E-7\n    + CJC=9.5E-12 MJC=0.32 VJC=0.4 CJE=115E-12 MJE=0.37 VJE=0.8\n    + TF=1.3E-9 TR=16E-6 TRC1=.004 TRB1=.004 TRE1=.004 XTB=1.4)
